Circuit: * Xyce Netlist for MESO2 - Skip DC Operating Point

Unknown model type "meso2yn" -- ignored
